!- Darwin Line endings 

Version,
    9.4;                      !- Version Identifier

SimulationControl,
    Yes,                      !- Do Zone Sizing Calculation
    Yes,                      !- Do System Sizing Calculation
    Yes,                      !- Do Plant Sizing Calculation
    Yes,                      !- Run Simulation for Sizing Periods
    Yes,                      !- Run Simulation for Weather File Run Periods
    ,                         !- Do HVAC Sizing Simulation for Sizing Periods
    ;                         !- Maximum Number of HVAC Sizing Simulation Passes

Building,
    Thornton Center,          !- Name
    ,                         !- North Axis
    ,                         !- Terrain
    ,                         !- Loads Convergence Tolerance Value
    ,                         !- Temperature Convergence Tolerance Value
    ,                         !- Solar Distribution
    ,                         !- Maximum Number of Warmup Days
    ;                         !- Minimum Number of Warmup Days

ShadowCalculation,
    PolygonClipping,          !- Shading Calculation Method
    Periodic,                 !- Shading Calculation Update Frequency Method
    7,                        !- Shading Calculation Update Frequency
    15000,                    !- Maximum Figures in Shadow Overlap Calculations
    SutherlandHodgman,        !- Polygon Clipping Algorithm
    512,                      !- Pixel Counting Resolution
    SimpleSkyDiffuseModeling,    !- Sky Diffuse Modeling Algorithm
    No,                       !- Output External Shading Calculation Results
    No,                       !- Disable SelfShading Within Shading Zone Groups
    No;                       !- Disable SelfShading From Shading Zone Groups to Other Zones

SurfaceConvectionAlgorithm:Inside,
    TARP;                     !- Algorithm

SurfaceConvectionAlgorithm:Outside,
    DOE-2;                    !- Algorithm

HeatBalanceAlgorithm,
    ConductionTransferFunction,    !- Algorithm
    200;                      !- Surface Temperature Upper Limit

ZoneAirHeatBalanceAlgorithm,
    AnalyticalSolution;       !- Algorithm

ZoneAirContaminantBalance,
    No;                       !- Carbon Dioxide Concentration

ZoneCapacitanceMultiplier:ResearchSpecial,
    Zone Capacitance Multiplier Research Special,    !- Name
    ,                         !- Zone or ZoneList Name
    ,                         !- Temperature Capacity Multiplier
    ,                         !- Humidity Capacity Multiplier
    ,                         !- Carbon Dioxide Capacity Multiplier
    ;                         !- Generic Contaminant Capacity Multiplier

Timestep,
    4;                        !- Number of Timesteps per Hour

ConvergenceLimits,
    1;                        !- Minimum System Timestep

Site:Location,
    CA_PALO-ALTO-AP,          !- Name
    37.47,                    !- Latitude
    -122.12,                  !- Longitude
    -8,                       !- Time Zone
    2;                        !- Elevation

SizingPeriod:DesignDay,
    CA_PALO-ALTO-AP Ann Clg 0.4% Condns DB=>MCWB,    !- Name
    7,                        !- Month
    21,                       !- Day of Month
    SummerDesignDay,          !- Day Type
    33.4,                     !- Maximum DryBulb Temperature
    6.9,                      !- Daily DryBulb Temperature Range
    DefaultMultipliers,       !- DryBulb Temperature Range Modifier Type
    ,                         !- DryBulb Temperature Range Modifier Day Schedule Name
    Wetbulb,                  !- Humidity Condition Type
    19.2,                     !- Wetbulb or DewPoint at Maximum DryBulb
    ,                         !- Humidity Condition Day Schedule Name
    ,                         !- Humidity Ratio at Maximum DryBulb
    ,                         !- Enthalpy at Maximum DryBulb
    ,                         !- Daily WetBulb Temperature Range
    101301,                   !- Barometric Pressure
    5,                        !- Wind Speed
    337,                      !- Wind Direction
    No,                       !- Rain Indicator
    No,                       !- Snow Indicator
    No,                       !- Daylight Saving Time Indicator
    ASHRAETau,                !- Solar Model Indicator
    ,                         !- Beam Solar Day Schedule Name
    ,                         !- Diffuse Solar Day Schedule Name
    0,                        !- ASHRAE Clear Sky Optical Depth for Beam Irradiance taub
    0;                        !- ASHRAE Clear Sky Optical Depth for Diffuse Irradiance taud

SizingPeriod:DesignDay,
    CA_PALO-ALTO-AP Ann Clg 0.4% Condns DP=>MCDB,    !- Name
    7,                        !- Month
    21,                       !- Day of Month
    SummerDesignDay,          !- Day Type
    24.1,                     !- Maximum DryBulb Temperature
    6.9,                      !- Daily DryBulb Temperature Range
    DefaultMultipliers,       !- DryBulb Temperature Range Modifier Type
    ,                         !- DryBulb Temperature Range Modifier Day Schedule Name
    Dewpoint,                 !- Humidity Condition Type
    18.2,                     !- Wetbulb or DewPoint at Maximum DryBulb
    ,                         !- Humidity Condition Day Schedule Name
    ,                         !- Humidity Ratio at Maximum DryBulb
    ,                         !- Enthalpy at Maximum DryBulb
    ,                         !- Daily WetBulb Temperature Range
    101301,                   !- Barometric Pressure
    5,                        !- Wind Speed
    337,                      !- Wind Direction
    No,                       !- Rain Indicator
    No,                       !- Snow Indicator
    No,                       !- Daylight Saving Time Indicator
    ASHRAETau,                !- Solar Model Indicator
    ,                         !- Beam Solar Day Schedule Name
    ,                         !- Diffuse Solar Day Schedule Name
    0,                        !- ASHRAE Clear Sky Optical Depth for Beam Irradiance taub
    0;                        !- ASHRAE Clear Sky Optical Depth for Diffuse Irradiance taud

SizingPeriod:DesignDay,
    CA_PALO-ALTO-AP Ann Clg 0.4% Condns Enth=>MCDB,    !- Name
    7,                        !- Month
    21,                       !- Day of Month
    SummerDesignDay,          !- Day Type
    28.7,                     !- Maximum DryBulb Temperature
    6.9,                      !- Daily DryBulb Temperature Range
    DefaultMultipliers,       !- DryBulb Temperature Range Modifier Type
    ,                         !- DryBulb Temperature Range Modifier Day Schedule Name
    Enthalpy,                 !- Humidity Condition Type
    ,                         !- Wetbulb or DewPoint at Maximum DryBulb
    ,                         !- Humidity Condition Day Schedule Name
    ,                         !- Humidity Ratio at Maximum DryBulb
    60500,                    !- Enthalpy at Maximum DryBulb
    ,                         !- Daily WetBulb Temperature Range
    101301,                   !- Barometric Pressure
    5,                        !- Wind Speed
    337,                      !- Wind Direction
    No,                       !- Rain Indicator
    No,                       !- Snow Indicator
    No,                       !- Daylight Saving Time Indicator
    ASHRAETau,                !- Solar Model Indicator
    ,                         !- Beam Solar Day Schedule Name
    ,                         !- Diffuse Solar Day Schedule Name
    0,                        !- ASHRAE Clear Sky Optical Depth for Beam Irradiance taub
    0;                        !- ASHRAE Clear Sky Optical Depth for Diffuse Irradiance taud

SizingPeriod:DesignDay,
    CA_PALO-ALTO-AP Ann Clg 0.4% Condns WB=>MCDB,    !- Name
    7,                        !- Month
    21,                       !- Day of Month
    SummerDesignDay,          !- Day Type
    28.5,                     !- Maximum DryBulb Temperature
    6.9,                      !- Daily DryBulb Temperature Range
    DefaultMultipliers,       !- DryBulb Temperature Range Modifier Type
    ,                         !- DryBulb Temperature Range Modifier Day Schedule Name
    Wetbulb,                  !- Humidity Condition Type
    20.8,                     !- Wetbulb or DewPoint at Maximum DryBulb
    ,                         !- Humidity Condition Day Schedule Name
    ,                         !- Humidity Ratio at Maximum DryBulb
    ,                         !- Enthalpy at Maximum DryBulb
    ,                         !- Daily WetBulb Temperature Range
    101301,                   !- Barometric Pressure
    5,                        !- Wind Speed
    337,                      !- Wind Direction
    No,                       !- Rain Indicator
    No,                       !- Snow Indicator
    No,                       !- Daylight Saving Time Indicator
    ASHRAETau,                !- Solar Model Indicator
    ,                         !- Beam Solar Day Schedule Name
    ,                         !- Diffuse Solar Day Schedule Name
    0,                        !- ASHRAE Clear Sky Optical Depth for Beam Irradiance taub
    0;                        !- ASHRAE Clear Sky Optical Depth for Diffuse Irradiance taud

SizingPeriod:DesignDay,
    CA_PALO-ALTO-AP Ann Htg 99.6% Condns DB,    !- Name
    1,                        !- Month
    21,                       !- Day of Month
    WinterDesignDay,          !- Day Type
    1.4,                      !- Maximum DryBulb Temperature
    0,                        !- Daily DryBulb Temperature Range
    DefaultMultipliers,       !- DryBulb Temperature Range Modifier Type
    ,                         !- DryBulb Temperature Range Modifier Day Schedule Name
    Wetbulb,                  !- Humidity Condition Type
    1.4,                      !- Wetbulb or DewPoint at Maximum DryBulb
    ,                         !- Humidity Condition Day Schedule Name
    ,                         !- Humidity Ratio at Maximum DryBulb
    ,                         !- Enthalpy at Maximum DryBulb
    ,                         !- Daily WetBulb Temperature Range
    101301,                   !- Barometric Pressure
    1.1,                      !- Wind Speed
    22,                       !- Wind Direction
    No,                       !- Rain Indicator
    No,                       !- Snow Indicator
    No,                       !- Daylight Saving Time Indicator
    ASHRAEClearSky,           !- Solar Model Indicator
    ,                         !- Beam Solar Day Schedule Name
    ,                         !- Diffuse Solar Day Schedule Name
    ,                         !- ASHRAE Clear Sky Optical Depth for Beam Irradiance taub
    ,                         !- ASHRAE Clear Sky Optical Depth for Diffuse Irradiance taud
    0;                        !- Sky Clearness

SizingPeriod:DesignDay,
    CA_PALO-ALTO-AP Ann Htg 99.6% Condns DP=>MCDB,    !- Name
    1,                        !- Month
    21,                       !- Day of Month
    WinterDesignDay,          !- Day Type
    12.2,                     !- Maximum DryBulb Temperature
    0,                        !- Daily DryBulb Temperature Range
    DefaultMultipliers,       !- DryBulb Temperature Range Modifier Type
    ,                         !- DryBulb Temperature Range Modifier Day Schedule Name
    Dewpoint,                 !- Humidity Condition Type
    -7.2,                     !- Wetbulb or DewPoint at Maximum DryBulb
    ,                         !- Humidity Condition Day Schedule Name
    ,                         !- Humidity Ratio at Maximum DryBulb
    ,                         !- Enthalpy at Maximum DryBulb
    ,                         !- Daily WetBulb Temperature Range
    101301,                   !- Barometric Pressure
    1.1,                      !- Wind Speed
    22,                       !- Wind Direction
    No,                       !- Rain Indicator
    No,                       !- Snow Indicator
    No,                       !- Daylight Saving Time Indicator
    ASHRAEClearSky,           !- Solar Model Indicator
    ,                         !- Beam Solar Day Schedule Name
    ,                         !- Diffuse Solar Day Schedule Name
    ,                         !- ASHRAE Clear Sky Optical Depth for Beam Irradiance taub
    ,                         !- ASHRAE Clear Sky Optical Depth for Diffuse Irradiance taud
    0;                        !- Sky Clearness

RunPeriod,
    Run Period 1,             !- Name
    1,                        !- Begin Month
    1,                        !- Begin Day of Month
    2019,                     !- Begin Year
    12,                       !- End Month
    31,                       !- End Day of Month
    2019,                     !- End Year
    Tuesday,                  !- Day of Week for Start Day
    No,                       !- Use Weather File Holidays and Special Days
    No,                       !- Use Weather File Daylight Saving Period
    No,                       !- Apply Weekend Holiday Rule
    Yes,                      !- Use Weather File Rain Indicators
    Yes;                      !- Use Weather File Snow Indicators

ScheduleTypeLimits,
    Thermal Zone: Space 101 Thermostat Schedule Type Limits,    !- Name
    0,                        !- Lower Limit Value
    4,                        !- Upper Limit Value
    DISCRETE;                 !- Numeric Type

ScheduleTypeLimits,
    Temperature 36,           !- Name
    ,                         !- Lower Limit Value
    ,                         !- Upper Limit Value
    Continuous,               !- Numeric Type
    temperature;              !- Unit Type

ScheduleTypeLimits,
    Temperature 37,           !- Name
    ,                         !- Lower Limit Value
    ,                         !- Upper Limit Value
    Continuous,               !- Numeric Type
    temperature;              !- Unit Type

ScheduleTypeLimits,
    Thermal Zone: Space 103 Thermostat Schedule Type Limits,    !- Name
    0,                        !- Lower Limit Value
    4,                        !- Upper Limit Value
    DISCRETE;                 !- Numeric Type

ScheduleTypeLimits,
    Thermal Zone: Space 201 Thermostat Schedule Type Limits,    !- Name
    0,                        !- Lower Limit Value
    4,                        !- Upper Limit Value
    DISCRETE;                 !- Numeric Type

ScheduleTypeLimits,
    Thermal Zone: Space 203 Thermostat Schedule Type Limits,    !- Name
    0,                        !- Lower Limit Value
    4,                        !- Upper Limit Value
    DISCRETE;                 !- Numeric Type

ScheduleTypeLimits,
    ActivityLevel 13,         !- Name
    0,                        !- Lower Limit Value
    ,                         !- Upper Limit Value
    Continuous,               !- Numeric Type
    activitylevel;            !- Unit Type

ScheduleTypeLimits,
    Always On Discrete Limits,    !- Name
    0,                        !- Lower Limit Value
    1,                        !- Upper Limit Value
    Discrete,                 !- Numeric Type
    availability;             !- Unit Type

ScheduleTypeLimits,
    Fraction,                 !- Name
    0,                        !- Lower Limit Value
    1,                        !- Upper Limit Value
    CONTINUOUS;               !- Numeric Type

ScheduleTypeLimits,
    OnOff hvac_library,       !- Name
    0,                        !- Lower Limit Value
    1,                        !- Upper Limit Value
    Discrete,                 !- Numeric Type
    availability;             !- Unit Type

ScheduleTypeLimits,
    Temperature,              !- Name
    ,                         !- Lower Limit Value
    ,                         !- Upper Limit Value
    Continuous,               !- Numeric Type
    temperature;              !- Unit Type

ScheduleTypeLimits,
    number,                   !- Name
    0,                        !- Lower Limit Value
    4,                        !- Upper Limit Value
    DISCRETE;                 !- Numeric Type

Schedule:Day:Interval,
    Medium Office HtgSetp Default Schedule 1,    !- Name
    Temperature 36,           !- Schedule Type Limits Name
    No,                       !- Interpolate to Timestep
    06:00,                    !- Time 1
    15.1063271685735,         !- Value Until Time 1
    22:00,                    !- Time 2
    21,                       !- Value Until Time 2
    24:00,                    !- Time 3
    15.6;                     !- Value Until Time 3

Schedule:Day:Interval,
    Medium Office HtgSetp Rule 2 Day Schedule 1,    !- Name
    Temperature 36,           !- Schedule Type Limits Name
    No,                       !- Interpolate to Timestep
    06:00,                    !- Time 1
    15.6,                     !- Value Until Time 1
    18:00,                    !- Time 2
    21,                       !- Value Until Time 2
    24:00,                    !- Time 3
    15.6;                     !- Value Until Time 3

Schedule:Day:Interval,
    Medium Office HtgSetp Rule 1 Day Schedule 1,    !- Name
    Temperature 36,           !- Schedule Type Limits Name
    No,                       !- Interpolate to Timestep
    24:00,                    !- Time 1
    15.6;                     !- Value Until Time 1

Schedule:Day:Interval,
    Medium Office HtgSetp Summer Design Day 1,    !- Name
    Temperature 36,           !- Schedule Type Limits Name
    No,                       !- Interpolate to Timestep
    24:00,                    !- Time 1
    15.6;                     !- Value Until Time 1

Schedule:Day:Interval,
    Medium Office HtgSetp Winter Design Day 1,    !- Name
    Temperature 36,           !- Schedule Type Limits Name
    No,                       !- Interpolate to Timestep
    24:00,                    !- Time 1
    21;                       !- Value Until Time 1

Schedule:Day:Interval,
    Medium Office ClgSetp Default Schedule 1,    !- Name
    Temperature 37,           !- Schedule Type Limits Name
    No,                       !- Interpolate to Timestep
    06:00,                    !- Time 1
    26.7,                     !- Value Until Time 1
    22:00,                    !- Time 2
    24,                       !- Value Until Time 2
    24:00,                    !- Time 3
    26.7;                     !- Value Until Time 3

Schedule:Day:Interval,
    Medium Office ClgSetp Rule 2 Day Schedule 1,    !- Name
    Temperature 37,           !- Schedule Type Limits Name
    No,                       !- Interpolate to Timestep
    06:00,                    !- Time 1
    26.7,                     !- Value Until Time 1
    18:00,                    !- Time 2
    24,                       !- Value Until Time 2
    24:00,                    !- Time 3
    26.7;                     !- Value Until Time 3

Schedule:Day:Interval,
    Medium Office ClgSetp Rule 1 Day Schedule 1,    !- Name
    Temperature 37,           !- Schedule Type Limits Name
    No,                       !- Interpolate to Timestep
    24:00,                    !- Time 1
    26.7;                     !- Value Until Time 1

Schedule:Day:Interval,
    Medium Office ClgSetp Summer Design Day 1,    !- Name
    Temperature 37,           !- Schedule Type Limits Name
    No,                       !- Interpolate to Timestep
    06:00,                    !- Time 1
    26.7,                     !- Value Until Time 1
    22:00,                    !- Time 2
    24,                       !- Value Until Time 2
    24:00,                    !- Time 3
    26.7;                     !- Value Until Time 3

Schedule:Day:Interval,
    Medium Office ClgSetp Winter Design Day 1,    !- Name
    Temperature 37,           !- Schedule Type Limits Name
    No,                       !- Interpolate to Timestep
    24:00,                    !- Time 1
    26.7;                     !- Value Until Time 1

Schedule:Day:Interval,
    Medium Office HtgSetp Default Schedule 2,    !- Name
    Temperature 36,           !- Schedule Type Limits Name
    No,                       !- Interpolate to Timestep
    06:00,                    !- Time 1
    21,                       !- Value Until Time 1
    22:00,                    !- Time 2
    21,                       !- Value Until Time 2
    24:00,                    !- Time 3
    21;                       !- Value Until Time 3

Schedule:Day:Interval,
    Medium Office HtgSetp Rule 2 Day Schedule 2,    !- Name
    Temperature 36,           !- Schedule Type Limits Name
    No,                       !- Interpolate to Timestep
    06:00,                    !- Time 1
    21.1111111111111,         !- Value Until Time 1
    18:00,                    !- Time 2
    21.1111111111111,         !- Value Until Time 2
    24:00,                    !- Time 3
    21.1111111111111;         !- Value Until Time 3

Schedule:Day:Interval,
    Medium Office HtgSetp Rule 1 Day Schedule 2,    !- Name
    Temperature 36,           !- Schedule Type Limits Name
    No,                       !- Interpolate to Timestep
    24:00,                    !- Time 1
    21.1111111111111;         !- Value Until Time 1

Schedule:Day:Interval,
    Medium Office HtgSetp Summer Design Day 2,    !- Name
    Temperature 36,           !- Schedule Type Limits Name
    No,                       !- Interpolate to Timestep
    24:00,                    !- Time 1
    15.6;                     !- Value Until Time 1

Schedule:Day:Interval,
    Medium Office HtgSetp Winter Design Day 2,    !- Name
    Temperature 36,           !- Schedule Type Limits Name
    No,                       !- Interpolate to Timestep
    24:00,                    !- Time 1
    21;                       !- Value Until Time 1

Schedule:Day:Interval,
    Medium Office ClgSetp Default Schedule 2,    !- Name
    Temperature 37,           !- Schedule Type Limits Name
    No,                       !- Interpolate to Timestep
    06:00,                    !- Time 1
    25.1157434797363,         !- Value Until Time 1
    22:00,                    !- Time 2
    25.0225519197208,         !- Value Until Time 2
    24:00,                    !- Time 3
    25.2089350397518;         !- Value Until Time 3

Schedule:Day:Interval,
    Medium Office ClgSetp Rule 2 Day Schedule 2,    !- Name
    Temperature 37,           !- Schedule Type Limits Name
    No,                       !- Interpolate to Timestep
    06:00,                    !- Time 1
    26.7,                     !- Value Until Time 1
    18:00,                    !- Time 2
    24,                       !- Value Until Time 2
    24:00,                    !- Time 3
    26.7;                     !- Value Until Time 3

Schedule:Day:Interval,
    Medium Office ClgSetp Rule 1 Day Schedule 2,    !- Name
    Temperature 37,           !- Schedule Type Limits Name
    No,                       !- Interpolate to Timestep
    24:00,                    !- Time 1
    26.7;                     !- Value Until Time 1

Schedule:Day:Interval,
    Medium Office ClgSetp Summer Design Day 2,    !- Name
    Temperature 37,           !- Schedule Type Limits Name
    No,                       !- Interpolate to Timestep
    06:00,                    !- Time 1
    26.7,                     !- Value Until Time 1
    22:00,                    !- Time 2
    24,                       !- Value Until Time 2
    24:00,                    !- Time 3
    26.7;                     !- Value Until Time 3

Schedule:Day:Interval,
    Medium Office ClgSetp Winter Design Day 2,    !- Name
    Temperature 37,           !- Schedule Type Limits Name
    No,                       !- Interpolate to Timestep
    24:00,                    !- Time 1
    26.7;                     !- Value Until Time 1

Schedule:Day:Interval,
    Chilled_Water_Temperature_Default,    !- Name
    Temperature 36,           !- Schedule Type Limits Name
    No,                       !- Interpolate to Timestep
    24:00,                    !- Time 1
    12;                       !- Value Until Time 1

Schedule:Day:Interval,
    Chilled_Water_Temperature_Summer_Design_Day,    !- Name
    Temperature 36,           !- Schedule Type Limits Name
    No,                       !- Interpolate to Timestep
    24:00,                    !- Time 1
    6.7;                      !- Value Until Time 1

Schedule:Day:Interval,
    Chilled_Water_Temperature_Winter_Design_Day,    !- Name
    Temperature 36,           !- Schedule Type Limits Name
    No,                       !- Interpolate to Timestep
    24:00,                    !- Time 1
    6.7;                      !- Value Until Time 1

Schedule:Day:Interval,
    Deck_Temperature_Default,    !- Name
    Temperature 36,           !- Schedule Type Limits Name
    No,                       !- Interpolate to Timestep
    24:00,                    !- Time 1
    12.8;                     !- Value Until Time 1

Schedule:Day:Interval,
    Deck_Temperature_Summer_Design_Day,    !- Name
    Temperature 36,           !- Schedule Type Limits Name
    No,                       !- Interpolate to Timestep
    24:00,                    !- Time 1
    12.8;                     !- Value Until Time 1

Schedule:Day:Interval,
    Deck_Temperature_Winter_Design_Day,    !- Name
    Temperature 36,           !- Schedule Type Limits Name
    No,                       !- Interpolate to Timestep
    24:00,                    !- Time 1
    12.8;                     !- Value Until Time 1

Schedule:Day:Interval,
    Hot Water Temperature Default,    !- Name
    Temperature,              !- Schedule Type Limits Name
    No,                       !- Interpolate to Timestep
    24:00,                    !- Time 1
    67;                       !- Value Until Time 1

Schedule:Day:Interval,
    Hot Water Temperature Summer Design Day,    !- Name
    Temperature,              !- Schedule Type Limits Name
    No,                       !- Interpolate to Timestep
    24:00,                    !- Time 1
    67;                       !- Value Until Time 1

Schedule:Day:Interval,
    Hot Water Temperature Winter Design Day,    !- Name
    Temperature,              !- Schedule Type Limits Name
    No,                       !- Interpolate to Timestep
    24:00,                    !- Time 1
    67;                       !- Value Until Time 1

Schedule:Day:Interval,
    Medium Office Activity Default Schedule,    !- Name
    ActivityLevel 13,         !- Schedule Type Limits Name
    No,                       !- Interpolate to Timestep
    24:00,                    !- Time 1
    120;                      !- Value Until Time 1

Schedule:Day:Interval,
    Medium Office Activity Summer Design Day,    !- Name
    ActivityLevel 13,         !- Schedule Type Limits Name
    No,                       !- Interpolate to Timestep
    24:00,                    !- Time 1
    120;                      !- Value Until Time 1

Schedule:Day:Interval,
    Medium Office Activity Winter Design Day,    !- Name
    ActivityLevel 13,         !- Schedule Type Limits Name
    No,                       !- Interpolate to Timestep
    24:00,                    !- Time 1
    120;                      !- Value Until Time 1

Schedule:Day:Interval,
    Medium Office Bldg Equip Default Schedule,    !- Name
    Fraction,                 !- Schedule Type Limits Name
    No,                       !- Interpolate to Timestep
    08:00,                    !- Time 1
    0.4,                      !- Value Until Time 1
    12:00,                    !- Time 2
    0.9,                      !- Value Until Time 2
    13:00,                    !- Time 3
    0.8,                      !- Value Until Time 3
    17:00,                    !- Time 4
    0.9,                      !- Value Until Time 4
    18:00,                    !- Time 5
    0.8,                      !- Value Until Time 5
    20:00,                    !- Time 6
    0.6,                      !- Value Until Time 6
    22:00,                    !- Time 7
    0.5,                      !- Value Until Time 7
    24:00,                    !- Time 8
    0.4;                      !- Value Until Time 8

Schedule:Day:Interval,
    Medium Office Bldg Equip Default Schedule 1,    !- Name
    Fraction,                 !- Schedule Type Limits Name
    No,                       !- Interpolate to Timestep
    06:00,                    !- Time 1
    0.282739116734536,        !- Value Until Time 1
    07:00,                    !- Time 2
    0.577671207420335,        !- Value Until Time 2
    08:00,                    !- Time 3
    0.795816244909831,        !- Value Until Time 3
    12:00,                    !- Time 4
    0.926703267403529,        !- Value Until Time 4
    13:00,                    !- Time 5
    0.820248489108655,        !- Value Until Time 5
    17:00,                    !- Time 6
    0.931938748303277,        !- Value Until Time 6
    18:00,                    !- Time 7
    0.8,                      !- Value Until Time 7
    20:00,                    !- Time 8
    0.6,                      !- Value Until Time 8
    22:00,                    !- Time 9
    0.5,                      !- Value Until Time 9
    24:00,                    !- Time 10
    0.308916521233275;        !- Value Until Time 10

Schedule:Day:Interval,
    Medium Office Bldg Equip Default Schedule 2,    !- Name
    Fraction,                 !- Schedule Type Limits Name
    No,                       !- Interpolate to Timestep
    06:00,                    !- Time 1
    0.6,                      !- Value Until Time 1
    08:00,                    !- Time 2
    0.8,                      !- Value Until Time 2
    21:00,                    !- Time 3
    0.9,                      !- Value Until Time 3
    24:00,                    !- Time 4
    0.8;                      !- Value Until Time 4

Schedule:Day:Interval,
    Medium Office Bldg Equip Rule 1 Day Schedule,    !- Name
    Fraction,                 !- Schedule Type Limits Name
    No,                       !- Interpolate to Timestep